# ------------------------------------------------------------------------------------------
EXECUTION_CODE_ASTER_EXIT_83481=1

 <I>_EXIT_CODE = 1